
Circuit: laboratorio - 1

Doing analysis at TEMP = 27.000000 and TNOM = 27.000000


No. of Data Rows : 1
********************************************
Operating point
********************************************
op_TAB
@gvc[i] = -1.81725e-03
@r1[i] = 1.817170e-03
@r2[i] = -1.81725e-03
@r3[i] = -8.17636e-08
@r4[i] = 7.823002e-04
@r5[i] = -1.81725e-03
@r6[i] = -1.03487e-03
@r7[i] = -1.03487e-03
hvc#branch = 1.034870e-03
v1 = 5.051443e+00
v2 = 3.183108e+00
v3 = -5.86132e-01
v5 = 3.183358e+00
v6 = 8.704243e+00
v7 = 2.126497e+00
v8 = 3.191757e+00
vamp#branch = -1.03487e-03
vaux = 2.126497e+00
vs#branch = -1.81717e-03
op_END
ngspice-31 done
