
Circuit: *

********************************************
Transient analysis
********************************************
Doing analysis at TEMP = 27.000000 and TNOM = 27.000000

Warning: vs: no DC value, transient time 0 value used

Initial Transient Solution
--------------------------

Node                                   Voltage
----                                   -------
1                                            0
2                                            0
4                                  1.90104e-19
3                                  1.90103e-19
e1#branch                         -5.32149e-40
vs#branch                                    0

Warning: singular matrix:  check nodes 4 and 4

Warning: singular matrix:  check nodes 4 and 4

Warning: singular matrix:  check nodes 4 and 4

Warning: singular matrix:  check nodes 4 and 4

Warning: singular matrix:  check nodes 4 and 4

doAnalyses: TRAN:  Timestep too small; time = 0.016158, timestep = 1.25e-16: trouble with node "3"


tran simulation(s) aborted

The file "trans2.ps" may be printed on a postscript printer.
trans_FIG
Doing analysis at TEMP = 27.000000 and TNOM = 27.000000

Warning: vs: no DC value, transient time 0 value used

No. of Data Rows : 1
	Node                                  Voltage
	----                                  -------
	----	-------
	V(3)                             1.901026e-19
	V(4)                             1.901041e-19
	V(2)                             0.000000e+00
	V(1)                             0.000000e+00

	Source	Current
	------	-------

	@cc[i]                           0.000000e+00
	@r1[i]                           1.479706e-28
	@d4[id]                          -1.90103e-31
	@d3[id]                          1.901041e-31
	@d2[id]                          -1.90103e-31
	@d1[id]                          1.901041e-31
	@rq[i]                           0.000000e+00
	vs#branch                        0.000000e+00
	e1#branch                        -5.32149e-40

 Capacitor models (Fixed capacitor)
      model                     C

        cap                     0
         cj                     0
       cjsw                     0
       defw                 1e-05
       defl                     0
     narrow                     0
      short                     0
        del                     0
        tc1                     0
        tc2                     0
         di                     0
      thick                     0
     bv_max                 1e+99

 Diode models (Junction Diode model)
      model               default

      level                     1
         is                 1e-14
        jsw                     0
         rs                     0
        trs                     0
       trs2                     0
          n                     1
         ns                     1
         tt                     0
       ttt1                     0
       ttt2                     0
        cjo                     0
         vj                     1
          m                   0.5
        tm1                     0
        tm2                     0
        cjp                     0
        php                     1
       mjsw                  0.33
        ikf                     0
        ikr                     0
        nbv                     1
       area                     1
         pj                     0
       tlev                     0
      tlevc                     0
         eg                  1.11
        xti                     3
        cta                     0
        ctp                     0
        tpb                     0
       tphp                     0
       jtun                     0
     jtunsw                     0
       ntun                    30
     xtitun                     3
        keg                     1
         kf                     0
         af                     1
         fc                   0.5
        fcs                   0.5
         bv                     0
        ibv                 0.001
        tcv                     0
     fv_max                 1e+99
     bv_max                 1e+99
        isr                 1e-14
         nr                     1

 Resistor models (Simple linear resistor)
      model                     R

        rsh                     0
     narrow                     0
      short                     0
        tc1                     0
        tc2                     0
        tce                     0
       defw                 1e-05
          l                 1e-05
         kf                     0
         af                     0
          r                     0
     bv_max                 1e+99
         lf                     1
         wf                     1
         ef                     1

 Capacitor: Fixed capacitor
     device                    cc
      model                     C
capacitance                 1e-05
      dtemp                     0
     bv_max                 1e+99
          i                     0
          p                     0

 Diode: Junction Diode model
     device                    d4                    d3                    d2
      model               default               default               default
         vd          -1.90103e-19           1.90104e-19          -1.90103e-19
         id          -1.90103e-31           1.90104e-31          -1.90103e-31
         gd           1.38662e-12           1.38662e-12           1.38662e-12
         cd                     0                     0                     0

 Diode: Junction Diode model
     device                    d1
      model               default
         vd           1.90104e-19
         id           1.90104e-31
         gd           1.38662e-12
         cd                     0

 Resistor: Simple linear resistor
     device                    r1                    rq
      model                     R                     R
 resistance                 10000                     1
         ac                 10000                     1
      dtemp                     0                     0
     bv_max                 1e+99                 1e+99
      noisy                     1                     1
          i           1.47971e-28                     0
          p           2.18953e-52                     0

 VCVS: Voltage controlled voltage source
     device                    e1
          i          -5.32149e-40
          v                     0
          p                    -0

 Vsource: Independent voltage source
     device                    vs
         dc                     0
      acmag                     0
      pulse                     0
                              230
                               50
                                0
                                0
                                0
        sin                     0
                              230
                               50
                                0
                                0
                                0
        exp                     0
                              230
                               50
                                0
                                0
                                0
        pwl                     0
                              230
                               50
                                0
                                0
                                0
       sffm                     0
                              230
                               50
                                0
                                0
                                0
         am                     0
                              230
                               50
                                0
                                0
                                0
    trnoise                     0
                              230
                               50
                                0
                                0
                                0
   trrandom                     0
                              230
                               50
                                0
                                0
                                0
          i                     0
          p                    -0


Total analysis time (seconds) = 0.002

Total elapsed time (seconds) = 0.005 

Total DRAM available = 15879.199 MB.
DRAM currently available = 3362.840 MB.
Total ngspice program size =   21.996 MB.
Resident set size =    9.895 MB.
Shared ngspice pages =    7.992 MB.
Text (code) pages =    5.070 MB.
Stack = 0 bytes.
Library pages =    2.254 MB.

